Version 4
SHEET 1 9684 4444
WIRE 3600 -1872 3104 -1872
WIRE 4144 -1872 3648 -1872
WIRE 4688 -1872 4192 -1872
WIRE 5232 -1872 4736 -1872
WIRE 5776 -1872 5280 -1872
WIRE 6320 -1872 5824 -1872
WIRE 3328 -1776 3312 -1776
WIRE 3872 -1776 3856 -1776
WIRE 4416 -1776 4400 -1776
WIRE 4960 -1776 4944 -1776
WIRE 5504 -1776 5488 -1776
WIRE 6048 -1776 6032 -1776
WIRE 3328 -1744 3312 -1744
WIRE 3872 -1744 3856 -1744
WIRE 4416 -1744 4400 -1744
WIRE 4960 -1744 4944 -1744
WIRE 5504 -1744 5488 -1744
WIRE 6048 -1744 6032 -1744
WIRE 3328 -1712 3312 -1712
WIRE 3872 -1712 3856 -1712
WIRE 4416 -1712 4400 -1712
WIRE 4960 -1712 4944 -1712
WIRE 5504 -1712 5488 -1712
WIRE 6048 -1712 6032 -1712
WIRE 3328 -1680 3312 -1680
WIRE 3872 -1680 3856 -1680
WIRE 4416 -1680 4400 -1680
WIRE 4960 -1680 4944 -1680
WIRE 5504 -1680 5488 -1680
WIRE 6048 -1680 6032 -1680
WIRE 3104 -1584 3104 -1872
WIRE 3328 -1584 3104 -1584
WIRE 3648 -1584 3648 -1872
WIRE 3872 -1584 3648 -1584
WIRE 4192 -1584 4192 -1872
WIRE 4416 -1584 4192 -1584
WIRE 4736 -1584 4736 -1872
WIRE 4960 -1584 4736 -1584
WIRE 5280 -1584 5280 -1872
WIRE 5504 -1584 5280 -1584
WIRE 5824 -1584 5824 -1872
WIRE 6048 -1584 5824 -1584
WIRE 3328 -1552 3312 -1552
WIRE 3872 -1552 3856 -1552
WIRE 4416 -1552 4400 -1552
WIRE 4960 -1552 4944 -1552
WIRE 5504 -1552 5488 -1552
WIRE 6048 -1552 6032 -1552
WIRE 3328 -1520 3312 -1520
WIRE 3872 -1520 3856 -1520
WIRE 4416 -1520 4400 -1520
WIRE 4960 -1520 4944 -1520
WIRE 5504 -1520 5488 -1520
WIRE 6048 -1520 6032 -1520
WIRE 3328 -1488 3312 -1488
WIRE 3872 -1488 3856 -1488
WIRE 4416 -1488 4400 -1488
WIRE 4960 -1488 4944 -1488
WIRE 5504 -1488 5488 -1488
WIRE 6048 -1488 6032 -1488
WIRE 3328 -1456 3312 -1456
WIRE 3872 -1456 3856 -1456
WIRE 4416 -1456 4400 -1456
WIRE 4960 -1456 4944 -1456
WIRE 5504 -1456 5488 -1456
WIRE 6048 -1456 6032 -1456
WIRE 3552 -1328 3552 -1456
WIRE 3552 -1328 3104 -1328
WIRE 4096 -1328 4096 -1456
WIRE 4096 -1328 3648 -1328
WIRE 4640 -1328 4640 -1456
WIRE 4640 -1328 4192 -1328
WIRE 5184 -1328 5184 -1456
WIRE 5184 -1328 4736 -1328
WIRE 5728 -1328 5728 -1456
WIRE 5728 -1328 5280 -1328
WIRE 6272 -1328 6272 -1456
WIRE 6272 -1328 5824 -1328
WIRE 3328 -1232 3312 -1232
WIRE 3872 -1232 3856 -1232
WIRE 4416 -1232 4400 -1232
WIRE 4960 -1232 4944 -1232
WIRE 5504 -1232 5488 -1232
WIRE 6048 -1232 6032 -1232
WIRE 3328 -1200 3312 -1200
WIRE 3872 -1200 3856 -1200
WIRE 4416 -1200 4400 -1200
WIRE 4960 -1200 4944 -1200
WIRE 5504 -1200 5488 -1200
WIRE 6048 -1200 6032 -1200
WIRE 3328 -1168 3312 -1168
WIRE 3872 -1168 3856 -1168
WIRE 4416 -1168 4400 -1168
WIRE 4960 -1168 4944 -1168
WIRE 5504 -1168 5488 -1168
WIRE 6048 -1168 6032 -1168
WIRE 3328 -1136 3312 -1136
WIRE 3872 -1136 3856 -1136
WIRE 4416 -1136 4400 -1136
WIRE 4960 -1136 4944 -1136
WIRE 5504 -1136 5488 -1136
WIRE 6048 -1136 6032 -1136
WIRE 3104 -1040 3104 -1328
WIRE 3328 -1040 3104 -1040
WIRE 3648 -1040 3648 -1328
WIRE 3872 -1040 3648 -1040
WIRE 4192 -1040 4192 -1328
WIRE 4416 -1040 4192 -1040
WIRE 4736 -1040 4736 -1328
WIRE 4960 -1040 4736 -1040
WIRE 5280 -1040 5280 -1328
WIRE 5504 -1040 5280 -1040
WIRE 5824 -1040 5824 -1328
WIRE 6048 -1040 5824 -1040
WIRE 3328 -1008 3312 -1008
WIRE 3872 -1008 3856 -1008
WIRE 4416 -1008 4400 -1008
WIRE 4960 -1008 4944 -1008
WIRE 5504 -1008 5488 -1008
WIRE 6048 -1008 6032 -1008
WIRE 3328 -976 3312 -976
WIRE 3872 -976 3856 -976
WIRE 4416 -976 4400 -976
WIRE 4960 -976 4944 -976
WIRE 5504 -976 5488 -976
WIRE 6048 -976 6032 -976
WIRE 3328 -944 3312 -944
WIRE 3872 -944 3856 -944
WIRE 4416 -944 4400 -944
WIRE 4960 -944 4944 -944
WIRE 5504 -944 5488 -944
WIRE 6048 -944 6032 -944
WIRE 3328 -912 3312 -912
WIRE 3872 -912 3856 -912
WIRE 4416 -912 4400 -912
WIRE 4960 -912 4944 -912
WIRE 5504 -912 5488 -912
WIRE 6048 -912 6032 -912
WIRE 3552 -784 3552 -912
WIRE 3552 -784 3104 -784
WIRE 4096 -784 4096 -912
WIRE 4096 -784 3648 -784
WIRE 4640 -784 4640 -912
WIRE 4640 -784 4192 -784
WIRE 5184 -784 5184 -912
WIRE 5184 -784 4736 -784
WIRE 5728 -784 5728 -912
WIRE 5728 -784 5280 -784
WIRE 6272 -784 6272 -912
WIRE 6272 -784 5824 -784
WIRE 7104 -784 6688 -784
WIRE 7552 -784 7152 -784
WIRE 8016 -784 7616 -784
WIRE 8480 -784 8080 -784
WIRE 3328 -688 3312 -688
WIRE 3872 -688 3856 -688
WIRE 4416 -688 4400 -688
WIRE 4960 -688 4944 -688
WIRE 5504 -688 5488 -688
WIRE 6048 -688 6032 -688
WIRE 6832 -688 6816 -688
WIRE 7296 -688 7280 -688
WIRE 7760 -688 7744 -688
WIRE 8224 -688 8208 -688
WIRE 3328 -656 3312 -656
WIRE 3872 -656 3856 -656
WIRE 4416 -656 4400 -656
WIRE 4960 -656 4944 -656
WIRE 5504 -656 5488 -656
WIRE 6048 -656 6032 -656
WIRE 6832 -656 6816 -656
WIRE 7296 -656 7280 -656
WIRE 7760 -656 7744 -656
WIRE 8224 -656 8208 -656
WIRE 3328 -624 3312 -624
WIRE 3872 -624 3856 -624
WIRE 4416 -624 4400 -624
WIRE 4960 -624 4944 -624
WIRE 5504 -624 5488 -624
WIRE 6048 -624 6032 -624
WIRE 6832 -624 6816 -624
WIRE 7296 -624 7280 -624
WIRE 7760 -624 7744 -624
WIRE 8224 -624 8208 -624
WIRE 3328 -592 3312 -592
WIRE 3872 -592 3856 -592
WIRE 4416 -592 4400 -592
WIRE 4960 -592 4944 -592
WIRE 5504 -592 5488 -592
WIRE 6048 -592 6032 -592
WIRE 6832 -592 6816 -592
WIRE 7296 -592 7280 -592
WIRE 7760 -592 7744 -592
WIRE 8224 -592 8208 -592
WIRE 3104 -496 3104 -784
WIRE 3328 -496 3104 -496
WIRE 3648 -496 3648 -784
WIRE 3872 -496 3648 -496
WIRE 4192 -496 4192 -784
WIRE 4416 -496 4192 -496
WIRE 4736 -496 4736 -784
WIRE 4960 -496 4736 -496
WIRE 5280 -496 5280 -784
WIRE 5504 -496 5280 -496
WIRE 5824 -496 5824 -784
WIRE 6048 -496 5824 -496
WIRE 6832 -496 6816 -496
WIRE 7296 -496 7280 -496
WIRE 7760 -496 7744 -496
WIRE 8224 -496 8208 -496
WIRE 3328 -464 3312 -464
WIRE 3872 -464 3856 -464
WIRE 4416 -464 4400 -464
WIRE 4960 -464 4944 -464
WIRE 5504 -464 5488 -464
WIRE 6048 -464 6032 -464
WIRE 6816 -464 6816 -496
WIRE 6832 -464 6816 -464
WIRE 7072 -464 7056 -464
WIRE 7280 -464 7280 -496
WIRE 7296 -464 7280 -464
WIRE 7744 -464 7744 -496
WIRE 7760 -464 7744 -464
WIRE 8208 -464 8208 -496
WIRE 8224 -464 8208 -464
WIRE 3328 -432 3312 -432
WIRE 3872 -432 3856 -432
WIRE 4416 -432 4400 -432
WIRE 4960 -432 4944 -432
WIRE 5504 -432 5488 -432
WIRE 6048 -432 6032 -432
WIRE 6816 -432 6816 -464
WIRE 6832 -432 6816 -432
WIRE 7280 -432 7280 -464
WIRE 7296 -432 7280 -432
WIRE 7744 -432 7744 -464
WIRE 7760 -432 7744 -432
WIRE 8208 -432 8208 -464
WIRE 8224 -432 8208 -432
WIRE 3328 -400 3312 -400
WIRE 3872 -400 3856 -400
WIRE 4416 -400 4400 -400
WIRE 4960 -400 4944 -400
WIRE 5504 -400 5488 -400
WIRE 6048 -400 6032 -400
WIRE 6816 -400 6816 -432
WIRE 6832 -400 6816 -400
WIRE 7280 -400 7280 -432
WIRE 7296 -400 7280 -400
WIRE 7744 -400 7744 -432
WIRE 7760 -400 7744 -400
WIRE 8208 -400 8208 -432
WIRE 8224 -400 8208 -400
WIRE 3328 -368 3312 -368
WIRE 3872 -368 3856 -368
WIRE 4416 -368 4400 -368
WIRE 4960 -368 4944 -368
WIRE 5504 -368 5488 -368
WIRE 6048 -368 6032 -368
WIRE 6816 -368 6816 -400
WIRE 6816 -368 6800 -368
WIRE 6832 -368 6816 -368
WIRE 7280 -368 7280 -400
WIRE 7280 -368 7264 -368
WIRE 7296 -368 7280 -368
WIRE 7744 -368 7744 -400
WIRE 7744 -368 7728 -368
WIRE 7760 -368 7744 -368
WIRE 8208 -368 8208 -400
WIRE 8208 -368 8192 -368
WIRE 8224 -368 8208 -368
WIRE 6688 -336 6688 -784
WIRE 6832 -336 6688 -336
WIRE 7152 -336 7152 -784
WIRE 7296 -336 7152 -336
WIRE 7616 -336 7616 -784
WIRE 7760 -336 7616 -336
WIRE 8080 -336 8080 -784
WIRE 8224 -336 8080 -336
WIRE 3552 -240 3552 -368
WIRE 3552 -240 3104 -240
WIRE 4096 -240 4096 -368
WIRE 4096 -240 3648 -240
WIRE 4640 -240 4640 -368
WIRE 4640 -240 4192 -240
WIRE 5184 -240 5184 -368
WIRE 5184 -240 4736 -240
WIRE 5728 -240 5728 -368
WIRE 5728 -240 5280 -240
WIRE 6272 -240 6272 -368
WIRE 6272 -240 5824 -240
WIRE 7056 -240 7056 -368
WIRE 7056 -240 6688 -240
WIRE 7520 -240 7520 -368
WIRE 7520 -240 7152 -240
WIRE 7984 -240 7984 -368
WIRE 7984 -240 7616 -240
WIRE 8448 -240 8448 -368
WIRE 8448 -240 8080 -240
WIRE 3328 -144 3312 -144
WIRE 3872 -144 3856 -144
WIRE 4416 -144 4400 -144
WIRE 4960 -144 4944 -144
WIRE 5504 -144 5488 -144
WIRE 6048 -144 6032 -144
WIRE 6832 -144 6816 -144
WIRE 7296 -144 7280 -144
WIRE 7760 -144 7744 -144
WIRE 8224 -144 8208 -144
WIRE 3328 -112 3312 -112
WIRE 3872 -112 3856 -112
WIRE 4416 -112 4400 -112
WIRE 4960 -112 4944 -112
WIRE 5504 -112 5488 -112
WIRE 6048 -112 6032 -112
WIRE 6832 -112 6816 -112
WIRE 7296 -112 7280 -112
WIRE 7760 -112 7744 -112
WIRE 8224 -112 8208 -112
WIRE 3328 -80 3312 -80
WIRE 3872 -80 3856 -80
WIRE 4416 -80 4400 -80
WIRE 4960 -80 4944 -80
WIRE 5504 -80 5488 -80
WIRE 6048 -80 6032 -80
WIRE 6832 -80 6816 -80
WIRE 7296 -80 7280 -80
WIRE 7760 -80 7744 -80
WIRE 8224 -80 8208 -80
WIRE 3328 -48 3312 -48
WIRE 3872 -48 3856 -48
WIRE 4416 -48 4400 -48
WIRE 4960 -48 4944 -48
WIRE 5504 -48 5488 -48
WIRE 6048 -48 6032 -48
WIRE 6832 -48 6816 -48
WIRE 7296 -48 7280 -48
WIRE 7760 -48 7744 -48
WIRE 8224 -48 8208 -48
WIRE 3104 48 3104 -240
WIRE 3328 48 3104 48
WIRE 3648 48 3648 -240
WIRE 3872 48 3648 48
WIRE 4192 48 4192 -240
WIRE 4416 48 4192 48
WIRE 4736 48 4736 -240
WIRE 4960 48 4736 48
WIRE 5280 48 5280 -240
WIRE 5504 48 5280 48
WIRE 5824 48 5824 -240
WIRE 6048 48 5824 48
WIRE 6688 48 6688 -240
WIRE 6832 48 6688 48
WIRE 7152 48 7152 -240
WIRE 7296 48 7152 48
WIRE 7616 48 7616 -240
WIRE 7760 48 7616 48
WIRE 8080 48 8080 -240
WIRE 8224 48 8080 48
WIRE 3328 80 3312 80
WIRE 3872 80 3856 80
WIRE 4416 80 4400 80
WIRE 4960 80 4944 80
WIRE 5504 80 5488 80
WIRE 6048 80 6032 80
WIRE 6832 80 6816 80
WIRE 7104 80 7104 -784
WIRE 7104 80 7056 80
WIRE 7296 80 7280 80
WIRE 7552 80 7552 -784
WIRE 7552 80 7520 80
WIRE 7760 80 7744 80
WIRE 8016 80 8016 -784
WIRE 8016 80 7984 80
WIRE 8224 80 8208 80
WIRE 8480 80 8480 -784
WIRE 8480 80 8448 80
WIRE 3328 112 3312 112
WIRE 3872 112 3856 112
WIRE 4416 112 4400 112
WIRE 4960 112 4944 112
WIRE 5504 112 5488 112
WIRE 6048 112 6032 112
WIRE 6816 112 6816 80
WIRE 6832 112 6816 112
WIRE 7104 112 7056 112
WIRE 7280 112 7280 80
WIRE 7296 112 7280 112
WIRE 7744 112 7744 80
WIRE 7760 112 7744 112
WIRE 8208 112 8208 80
WIRE 8224 112 8208 112
WIRE 8480 112 8448 112
WIRE 3328 144 3312 144
WIRE 3872 144 3856 144
WIRE 4416 144 4400 144
WIRE 4960 144 4944 144
WIRE 5504 144 5488 144
WIRE 6048 144 6032 144
WIRE 6816 144 6816 112
WIRE 6832 144 6816 144
WIRE 7120 144 7056 144
WIRE 7280 144 7280 112
WIRE 7296 144 7280 144
WIRE 7744 144 7744 112
WIRE 7760 144 7744 144
WIRE 8208 144 8208 112
WIRE 8224 144 8208 144
WIRE 3328 176 3312 176
WIRE 3600 176 3600 -1872
WIRE 3600 176 3552 176
WIRE 3664 176 3600 176
WIRE 3872 176 3856 176
WIRE 4144 176 4144 -1872
WIRE 4144 176 4096 176
WIRE 4224 176 4144 176
WIRE 4416 176 4400 176
WIRE 4688 176 4688 -1872
WIRE 4688 176 4640 176
WIRE 4960 176 4944 176
WIRE 5232 176 5232 -1872
WIRE 5232 176 5184 176
WIRE 5504 176 5488 176
WIRE 5776 176 5776 -1872
WIRE 5776 176 5728 176
WIRE 6048 176 6032 176
WIRE 6320 176 6320 -1872
WIRE 6320 176 6272 176
WIRE 6816 176 6816 144
WIRE 6816 176 6800 176
WIRE 6832 176 6816 176
WIRE 7280 176 7280 144
WIRE 7280 176 7264 176
WIRE 7296 176 7280 176
WIRE 7744 176 7744 144
WIRE 7744 176 7728 176
WIRE 7760 176 7744 176
WIRE 8208 176 8208 144
WIRE 8208 176 8192 176
WIRE 8224 176 8208 176
WIRE 6544 192 6528 192
WIRE 6832 208 6768 208
WIRE 7296 208 7200 208
WIRE 7760 208 7664 208
WIRE 8224 208 8128 208
WIRE 6544 224 6528 224
WIRE 6320 304 6320 176
WIRE 6320 304 4784 304
WIRE 6544 304 6320 304
WIRE 8128 320 8128 208
WIRE 8128 320 6736 320
WIRE 3648 336 3632 336
WIRE 6544 336 6192 336
WIRE 3776 352 3760 352
WIRE 3648 368 3632 368
WIRE 5776 368 5776 176
WIRE 5776 368 4752 368
WIRE 6544 368 5776 368
WIRE 7664 384 7664 208
WIRE 7664 384 6736 384
WIRE 6544 400 6224 400
WIRE 5232 432 5232 176
WIRE 5232 432 4720 432
WIRE 6544 432 5232 432
WIRE 7200 448 7200 208
WIRE 7200 448 6736 448
WIRE 6544 464 6256 464
WIRE 3648 496 3632 496
WIRE 4688 496 4688 176
WIRE 4688 496 4656 496
WIRE 6544 496 4688 496
WIRE 6768 512 6768 208
WIRE 6768 512 6736 512
WIRE 3280 528 3264 528
WIRE 3408 528 3392 528
WIRE 3648 528 3632 528
WIRE 4720 528 4720 432
WIRE 4720 528 4656 528
WIRE 6544 528 6288 528
WIRE 3776 544 3760 544
WIRE 3648 560 3632 560
WIRE 4752 560 4752 368
WIRE 4752 560 4656 560
WIRE 3648 592 3632 592
WIRE 4784 592 4784 304
WIRE 4784 592 4656 592
WIRE 7056 608 7056 176
WIRE 7056 608 6688 608
WIRE 7520 608 7520 176
WIRE 7520 608 7152 608
WIRE 7984 608 7984 176
WIRE 7984 608 7616 608
WIRE 8448 608 8448 176
WIRE 8448 608 8080 608
WIRE 4976 624 4944 624
WIRE 4976 640 4976 624
WIRE 4432 688 4384 688
WIRE 3280 704 3264 704
WIRE 3408 704 3392 704
WIRE 6832 704 6816 704
WIRE 7296 704 7280 704
WIRE 7760 704 7744 704
WIRE 8224 704 8208 704
WIRE 3648 720 3632 720
WIRE 4672 720 4656 720
WIRE 4880 720 4864 720
WIRE 5200 720 5184 720
WIRE 5280 720 5200 720
WIRE 6832 736 6816 736
WIRE 7296 736 7280 736
WIRE 7760 736 7744 736
WIRE 8224 736 8208 736
WIRE 3648 752 3632 752
WIRE 4672 752 4656 752
WIRE 4880 752 4864 752
WIRE 3776 768 3760 768
WIRE 6832 768 6816 768
WIRE 7296 768 7280 768
WIRE 7760 768 7744 768
WIRE 8224 768 8208 768
WIRE 3648 784 3632 784
WIRE 4672 784 4656 784
WIRE 6832 800 6816 800
WIRE 7296 800 7280 800
WIRE 7760 800 7744 800
WIRE 8224 800 8208 800
WIRE 3280 816 3264 816
WIRE 3408 816 3392 816
WIRE 3648 816 3632 816
WIRE 5200 832 5200 720
WIRE 5328 832 5200 832
WIRE 6688 896 6688 608
WIRE 6832 896 6688 896
WIRE 7152 896 7152 608
WIRE 7296 896 7152 896
WIRE 7616 896 7616 608
WIRE 7760 896 7616 896
WIRE 8080 896 8080 608
WIRE 8224 896 8080 896
WIRE 4432 928 4432 688
WIRE 4656 928 4656 816
WIRE 4656 928 4432 928
WIRE 6832 928 6816 928
WIRE 7120 928 7056 928
WIRE 7296 928 7280 928
WIRE 7584 928 7520 928
WIRE 7760 928 7744 928
WIRE 8048 928 7984 928
WIRE 8224 928 8208 928
WIRE 8512 928 8448 928
WIRE 3648 944 3632 944
WIRE 3776 960 3760 960
WIRE 4976 960 4976 864
WIRE 5136 960 5088 960
WIRE 5328 960 5328 832
WIRE 6816 960 6816 928
WIRE 6832 960 6816 960
WIRE 7088 960 7056 960
WIRE 7280 960 7280 928
WIRE 7296 960 7280 960
WIRE 7552 960 7520 960
WIRE 7744 960 7744 928
WIRE 7760 960 7744 960
WIRE 8016 960 7984 960
WIRE 8208 960 8208 928
WIRE 8224 960 8208 960
WIRE 8480 960 8448 960
WIRE 3648 976 3632 976
WIRE 5088 976 5088 960
WIRE 6816 992 6816 960
WIRE 6832 992 6816 992
WIRE 7280 992 7280 960
WIRE 7296 992 7280 992
WIRE 7744 992 7744 960
WIRE 7760 992 7744 992
WIRE 8208 992 8208 960
WIRE 8224 992 8208 992
WIRE 6816 1024 6816 992
WIRE 6832 1024 6816 1024
WIRE 7280 1024 7280 992
WIRE 7296 1024 7280 1024
WIRE 7744 1024 7744 992
WIRE 7760 1024 7744 1024
WIRE 8208 1024 8208 992
WIRE 8224 1024 8208 1024
WIRE 5088 1056 5088 1040
WIRE 6816 1056 6816 1024
WIRE 6816 1056 6800 1056
WIRE 6832 1056 6816 1056
WIRE 7280 1056 7280 1024
WIRE 7280 1056 7264 1056
WIRE 7296 1056 7280 1056
WIRE 7744 1056 7744 1024
WIRE 7744 1056 7728 1056
WIRE 7760 1056 7744 1056
WIRE 8208 1056 8208 1024
WIRE 8208 1056 8192 1056
WIRE 8224 1056 8208 1056
WIRE 3264 1104 3200 1104
WIRE 3680 1104 3616 1104
WIRE 3840 1104 3824 1104
WIRE 3968 1104 3952 1104
WIRE 4160 1104 4096 1104
WIRE 4400 1104 4320 1104
WIRE 6448 1120 6432 1120
WIRE 6688 1120 6672 1120
WIRE 3200 1136 3200 1104
WIRE 3616 1136 3616 1104
WIRE 4096 1136 4096 1104
WIRE 7120 1184 7120 928
WIRE 7120 1184 6672 1184
WIRE 4400 1216 4320 1216
WIRE 7584 1216 7584 928
WIRE 7584 1216 6672 1216
WIRE 3200 1232 3200 1216
WIRE 3616 1232 3616 1216
WIRE 4096 1232 4096 1216
WIRE 6288 1248 6288 528
WIRE 6448 1248 6288 1248
WIRE 8048 1248 8048 928
WIRE 8048 1248 6672 1248
WIRE 6256 1280 6256 464
WIRE 6448 1280 6256 1280
WIRE 8512 1280 8512 928
WIRE 8512 1280 6672 1280
WIRE 3264 1312 3200 1312
WIRE 3680 1312 3616 1312
WIRE 6224 1312 6224 400
WIRE 6448 1312 6224 1312
WIRE 3200 1344 3200 1312
WIRE 3616 1344 3616 1312
WIRE 4096 1344 4064 1344
WIRE 6192 1344 6192 336
WIRE 6448 1344 6192 1344
WIRE 7088 1344 7088 960
WIRE 7088 1344 6672 1344
WIRE 4240 1360 4208 1360
WIRE 4096 1376 4064 1376
WIRE 7552 1376 7552 960
WIRE 7552 1376 6672 1376
WIRE 8016 1408 8016 960
WIRE 8016 1408 6672 1408
WIRE 3200 1440 3200 1424
WIRE 3616 1440 3616 1424
WIRE 8480 1440 8480 960
WIRE 8480 1440 6672 1440
FLAG 4096 1232 0
FLAG 4160 1104 VCC
FLAG 3616 1232 0
FLAG 3616 1440 0
FLAG 3680 1312 RESET
FLAG 3200 1232 0
FLAG 3264 1104 MSET
FLAG 4944 -144 MRESET
FLAG 4944 -48 CLK_OR_MSET
FLAG 4944 -112 VCC
FLAG 4944 -688 MRESET
FLAG 4944 -656 VCC
FLAG 4944 -624 MSET
FLAG 3312 -144 MRESET
FLAG 3312 -48 CLK_OR_MSET
FLAG 3312 -112 VCC
FLAG 3312 -688 MRESET
FLAG 3312 -592 CLK_OR_MSET
FLAG 3312 -656 VCC
FLAG 3312 -624 MSET
FLAG 6032 -144 MRESET
FLAG 6032 -48 CLK_OR_MSET
FLAG 6032 -112 VCC
FLAG 6032 -688 MRESET
FLAG 6032 -656 VCC
FLAG 6032 -624 MSET
FLAG 5488 -144 MRESET
FLAG 5488 -48 CLK_OR_MSET
FLAG 5488 -112 VCC
FLAG 5488 -688 MRESET
FLAG 5488 -656 VCC
FLAG 5488 -624 MSET
FLAG 4400 -144 MRESET
FLAG 4400 -48 CLK_OR_MSET
FLAG 4400 -112 VCC
FLAG 4400 -688 MRESET
FLAG 4400 -656 VCC
FLAG 4400 -624 MSET
FLAG 3856 -144 MRESET
FLAG 3856 -48 CLK_OR_MSET
FLAG 3856 -112 VCC
FLAG 3856 -688 MRESET
FLAG 3856 -592 CLK_OR_MSET
FLAG 3856 -656 VCC
FLAG 3856 -624 MSET
FLAG 6816 -144 MRESET
FLAG 6816 -48 CLK
FLAG 6816 -688 MRESET
FLAG 6816 -592 CLK
FLAG 7744 -144 MRESET
FLAG 7744 -48 CLK
FLAG 7744 -688 MRESET
FLAG 7744 -592 CLK
FLAG 7280 -144 MRESET
FLAG 7280 -48 CLK
FLAG 7280 -688 MRESET
FLAG 7280 -592 CLK
FLAG 8208 -144 MRESET
FLAG 8208 -48 CLK
FLAG 8208 -688 MRESET
FLAG 8208 -592 CLK
FLAG 3200 1440 0
FLAG 3264 1312 MRESET
FLAG 3408 528 _PUSH
FLAG 3264 528 PUSH
FLAG 6816 -80 PUSH
FLAG 6816 -624 PUSH
FLAG 7280 -624 PUSH
FLAG 7280 -80 PUSH
FLAG 7744 -80 PUSH
FLAG 7744 -624 PUSH
FLAG 8208 -624 PUSH
FLAG 8208 -80 PUSH
FLAG 6816 -112 POP
FLAG 6816 -656 POP
FLAG 7280 -656 POP
FLAG 7744 -656 POP
FLAG 7280 -112 POP
FLAG 7744 -112 POP
FLAG 8208 -656 POP
FLAG 8208 -112 POP
FLAG 4064 1344 MSET
FLAG 4064 1376 CLK
FLAG 4240 1360 CLK_OR_MSET
FLAG 4400 -592 CLK_OR_MSET
FLAG 4944 -592 CLK_OR_MSET
FLAG 5488 -592 CLK_OR_MSET
FLAG 6032 -592 CLK_OR_MSET
FLAG 6816 704 MRESET
FLAG 6816 800 CLK
FLAG 7744 704 MRESET
FLAG 7744 800 CLK
FLAG 7280 704 MRESET
FLAG 7280 800 CLK
FLAG 8208 704 MRESET
FLAG 8208 800 CLK
FLAG 6816 736 POP
FLAG 7280 736 POP
FLAG 7744 736 POP
FLAG 8208 736 POP
FLAG 6816 768 0
FLAG 7280 768 0
FLAG 7744 768 0
FLAG 8208 768 0
FLAG 6032 -80 MSET
FLAG 5488 -80 MSET
FLAG 4944 -80 MSET
FLAG 4400 -80 MSET
FLAG 3856 -80 MSET
FLAG 3312 -80 MSET
FLAG 4400 1104 H
FLAG 4320 1104 VCC
FLAG 4400 1216 L
FLAG 4320 1216 0
FLAG 3632 528 _PUSH
FLAG 3632 368 _JUMPING
FLAG 3664 176 OP1
FLAG 4224 176 OP0
FLAG 3632 496 OP0
FLAG 3632 976 OP1
FLAG 3776 960 SELECT_ALU
FLAG 3632 944 _OP0
FLAG 3408 704 _OP0
FLAG 3264 704 OP0
FLAG 3408 816 _OP1
FLAG 3264 816 OP1
FLAG 3632 752 _OP1
FLAG 3632 720 _OP0
FLAG 3632 336 OP1
FLAG 3776 352 PUSH
FLAG 3632 560 _JUMPING
FLAG 4672 752 CLK
FLAG 4672 784 VCC
FLAG 4672 720 _LOAD
FLAG 4944 -1232 MRESET
FLAG 4944 -1200 VCC
FLAG 4944 -1168 MSET
FLAG 3312 -1232 MRESET
FLAG 3312 -1136 CLK_OR_MSET
FLAG 3312 -1200 VCC
FLAG 3312 -1168 MSET
FLAG 6032 -1232 MRESET
FLAG 6032 -1200 VCC
FLAG 6032 -1168 MSET
FLAG 5488 -1232 MRESET
FLAG 5488 -1200 VCC
FLAG 5488 -1168 MSET
FLAG 4400 -1232 MRESET
FLAG 4400 -1200 VCC
FLAG 4400 -1168 MSET
FLAG 3856 -1232 MRESET
FLAG 3856 -1136 CLK_OR_MSET
FLAG 3856 -1200 VCC
FLAG 3856 -1168 MSET
FLAG 4400 -1136 CLK_OR_MSET
FLAG 4944 -1136 CLK_OR_MSET
FLAG 5488 -1136 CLK_OR_MSET
FLAG 6032 -1136 CLK_OR_MSET
FLAG 4944 -1776 MRESET
FLAG 4944 -1744 VCC
FLAG 4944 -1712 MSET
FLAG 3312 -1776 MRESET
FLAG 3312 -1680 CLK_OR_MSET
FLAG 3312 -1744 VCC
FLAG 3312 -1712 MSET
FLAG 6032 -1776 MRESET
FLAG 6032 -1744 VCC
FLAG 6032 -1712 MSET
FLAG 5488 -1776 MRESET
FLAG 5488 -1744 VCC
FLAG 5488 -1712 MSET
FLAG 4400 -1776 MRESET
FLAG 4400 -1744 VCC
FLAG 4400 -1712 MSET
FLAG 3856 -1776 MRESET
FLAG 3856 -1680 CLK_OR_MSET
FLAG 3856 -1744 VCC
FLAG 3856 -1712 MSET
FLAG 4400 -1680 CLK_OR_MSET
FLAG 4944 -1680 CLK_OR_MSET
FLAG 5488 -1680 CLK_OR_MSET
FLAG 6032 -1680 CLK_OR_MSET
FLAG 6688 1120 0
FLAG 6432 1120 COUT
FLAG 3632 784 COUT
FLAG 3312 176 H
FLAG 3856 176 H
FLAG 3856 144 H
FLAG 3856 112 H
FLAG 4944 -1552 H
FLAG 4400 -1552 H
FLAG 5488 -1552 H
FLAG 6528 192 0
FLAG 3312 144 H
FLAG 3856 80 H
FLAG 6528 224 SELECT_ALU
FLAG 6032 -1552 H
FLAG 4944 -976 H
FLAG 5488 -1008 H
FLAG 3856 -1488 H
FLAG 3856 -1456 H
FLAG 4400 -1008 H
FLAG 4944 -1008 H
FLAG 6032 -1008 H
FLAG 3856 -464 H
FLAG 3856 -912 H
FLAG 3312 -944 H
FLAG 3312 -1008 H
FLAG 3856 -1008 H
FLAG 6032 -1520 H
FLAG 3632 816 _JUMPING
FLAG 4384 688 _JUMPING
FLAG 4864 720 JUMP
FLAG 4944 624 VCC
FLAG 4864 752 _CLK
FLAG 5088 1056 0
FLAG 5280 720 _LOAD
FLAG 3632 592 VCC
FLAG 3776 544 POP
FLAG 3776 768 JUMP
FLAG 3312 -1520 H
FLAG 3856 -1520 H
FLAG 4400 -1520 H
FLAG 4944 -1520 H
FLAG 5488 -1520 H
FLAG 5488 -976 H
FLAG 3312 112 H
FLAG 4400 112 H
FLAG 4944 112 H
FLAG 5488 112 H
FLAG 6032 112 H
FLAG 3856 -368 H
FLAG 3312 -400 H
FLAG 4400 -432 H
FLAG 4944 -432 H
FLAG 6032 -976 H
FLAG 4944 144 H
FLAG 4944 176 H
FLAG 6032 176 H
FLAG 6032 144 H
FLAG 5488 144 H
FLAG 5488 176 H
FLAG 4400 144 H
FLAG 4400 176 H
FLAG 3968 1104 _CLK
FLAG 3824 1104 CLK
FLAG 3680 1104 CLK
FLAG 3312 80 L
FLAG 4400 80 L
FLAG 4944 80 L
FLAG 5488 80 L
FLAG 6032 80 L
FLAG 6032 -368 L
FLAG 6032 -400 L
FLAG 6032 -432 L
FLAG 6032 -464 L
FLAG 5488 -464 L
FLAG 5488 -432 L
FLAG 5488 -400 L
FLAG 5488 -368 L
FLAG 4944 -368 L
FLAG 4944 -400 L
FLAG 4944 -464 L
FLAG 4400 -464 L
FLAG 4400 -400 L
FLAG 4400 -368 L
FLAG 3856 -400 L
FLAG 3856 -432 L
FLAG 3312 -368 L
FLAG 3312 -432 L
FLAG 3312 -464 L
FLAG 3312 -976 L
FLAG 3312 -912 L
FLAG 3856 -944 L
FLAG 3856 -976 L
FLAG 4400 -976 L
FLAG 4400 -944 L
FLAG 4400 -912 L
FLAG 4944 -944 L
FLAG 4944 -912 L
FLAG 5488 -944 L
FLAG 5488 -912 L
FLAG 6032 -944 L
FLAG 6032 -912 L
FLAG 6032 -1456 L
FLAG 6032 -1488 L
FLAG 5488 -1488 L
FLAG 5488 -1456 L
FLAG 4944 -1456 L
FLAG 4944 -1488 L
FLAG 4400 -1488 L
FLAG 4400 -1456 L
FLAG 3856 -1552 L
FLAG 3312 -1552 L
FLAG 3312 -1488 L
FLAG 3312 -1456 L
FLAG 6800 -368 0
FLAG 7264 -368 0
FLAG 7728 -368 0
FLAG 8192 -368 0
FLAG 6800 1056 0
FLAG 7264 1056 0
FLAG 7728 1056 0
FLAG 8192 1056 0
FLAG 6800 176 0
FLAG 7264 176 0
FLAG 7728 176 0
FLAG 8192 176 0
FLAG 3328 208 0
FLAG 3872 208 0
FLAG 4416 208 0
FLAG 4960 208 0
FLAG 3328 -336 0
FLAG 3872 -336 0
FLAG 4416 -336 0
FLAG 4960 -336 0
FLAG 3328 -880 0
FLAG 3872 -880 0
FLAG 4416 -880 0
FLAG 4960 -880 0
FLAG 4960 -1424 0
FLAG 4416 -1424 0
FLAG 3872 -1424 0
FLAG 3328 -1424 0
FLAG 5504 208 0
FLAG 6048 208 0
FLAG 5504 -336 0
SYMBOL voltage 4096 1120 R0
SYMATTR InstName V1
SYMATTR Value 5V
SYMBOL voltage 3616 1120 R0
WINDOW 123 0 0 Left 2
WINDOW 39 0 0 Left 2
SYMATTR InstName V2
SYMATTR Value PULSE(0 5 10u 1n 1n 498n 1u 10000)
SYMBOL voltage 3616 1328 R0
WINDOW 123 0 0 Left 2
WINDOW 39 0 0 Left 2
SYMATTR InstName V3
SYMATTR Value PULSE(5 0 5u 1n 1n 1u 200u 1)
SYMBOL voltage 3200 1120 R0
WINDOW 123 0 0 Left 2
WINDOW 39 0 0 Left 2
SYMATTR InstName V6
SYMATTR Value PULSE(0 5 2u 1n 1n 1u 100u 1)
SYMBOL 74hc283 6560 1504 R180
SYMATTR InstName U16
SYMBOL 74hc194 5072 -224 R0
SYMATTR InstName U19
SYMBOL 74hc194 5072 -768 R0
SYMATTR InstName U20
SYMBOL 74hc194 3440 -224 R0
SYMATTR InstName U21
SYMBOL 74hc194 3440 -768 R0
SYMATTR InstName U22
SYMBOL 74hc194 6160 -224 R0
SYMATTR InstName U23
SYMBOL 74hc194 6160 -768 R0
SYMATTR InstName U24
SYMBOL 74hc194 5616 -224 R0
SYMATTR InstName U25
SYMBOL 74hc194 5616 -768 R0
SYMATTR InstName U26
SYMBOL 74hc194 4528 -224 R0
SYMATTR InstName U29
SYMBOL 74hc194 4528 -768 R0
SYMATTR InstName U30
SYMBOL 74hc194 3984 -224 R0
SYMATTR InstName U31
SYMBOL 74hc194 3984 -768 R0
SYMATTR InstName U32
SYMBOL 74hc194 6944 -224 R0
SYMATTR InstName U33
SYMBOL 74hc194 6944 -768 R0
SYMATTR InstName U34
SYMBOL 74hc194 7872 -224 R0
SYMATTR InstName U35
SYMBOL 74hc194 7872 -768 R0
SYMATTR InstName U36
SYMBOL 74hc194 7408 -224 R0
SYMATTR InstName U37
SYMBOL 74hc194 7408 -768 R0
SYMATTR InstName U38
SYMBOL 74hc194 8336 -224 R0
SYMATTR InstName U39
SYMBOL 74hc194 8336 -768 R0
SYMATTR InstName U40
SYMBOL voltage 3200 1328 R0
WINDOW 123 0 0 Left 2
WINDOW 39 0 0 Left 2
SYMATTR InstName V7
SYMATTR Value PULSE(5 0 0u 1n 1n 1u 100u 1)
SYMBOL 74hc04 3328 464 R0
SYMATTR InstName U41
SYMBOL 74hc32 4144 1296 R0
SYMATTR InstName U46
SYMBOL 74hc194 6944 624 R0
SYMATTR InstName U43
SYMBOL 74hc194 7872 624 R0
SYMATTR InstName U44
SYMBOL 74hc194 7408 624 R0
SYMATTR InstName U45
SYMBOL 74hc194 8336 624 R0
SYMATTR InstName U47
SYMBOL 74hc08 3696 896 R0
SYMATTR InstName U15
SYMBOL 74hc04 3328 640 R0
SYMATTR InstName U27
SYMBOL 74hc04 3328 752 R0
SYMATTR InstName U28
SYMBOL 74hc08 3696 288 R0
SYMATTR InstName U52
SYMBOL 74hc191 4544 912 R180
SYMATTR InstName U54
SYMBOL 74hc194 5072 -1312 R0
SYMATTR InstName U1
SYMBOL 74hc194 3440 -1312 R0
SYMATTR InstName U2
SYMBOL 74hc194 6160 -1312 R0
SYMATTR InstName U4
SYMBOL 74hc194 5616 -1312 R0
SYMATTR InstName U5
SYMBOL 74hc194 4528 -1312 R0
SYMATTR InstName U6
SYMBOL 74hc194 3984 -1312 R0
SYMATTR InstName U7
SYMBOL 74hc194 5072 -1856 R0
SYMATTR InstName U8
SYMBOL 74hc194 3440 -1856 R0
SYMATTR InstName U9
SYMBOL 74hc194 6160 -1856 R0
SYMATTR InstName U10
SYMBOL 74hc194 5616 -1856 R0
SYMATTR InstName U11
SYMBOL 74hc194 4528 -1856 R0
SYMATTR InstName U12
SYMBOL 74hc194 3984 -1856 R0
SYMATTR InstName U13
SYMBOL 74hc157 6640 128 R0
SYMATTR InstName U14
SYMBOL 74hc74 4976 640 R0
SYMATTR InstName U59
SYMBOL 74hc04 5120 656 R0
SYMATTR InstName U72
SYMBOL 74hc04 5040 1024 R180
SYMATTR InstName U76
SYMBOL 74hc04 5280 896 M0
SYMATTR InstName U77
SYMBOL cap 5072 976 R0
SYMATTR InstName C1
SYMATTR Value 50p
SYMBOL res 5232 944 R90
WINDOW 0 0 56 VBottom 2
WINDOW 3 32 56 VTop 2
SYMATTR InstName R1
SYMATTR Value 1K
SYMBOL 74hc21 3696 448 R0
SYMATTR InstName U18
SYMBOL 74hc21 3696 672 R0
SYMATTR InstName U42
SYMBOL 74hc04 3888 1040 R0
SYMATTR InstName U48
TEXT 3168 376 Left 2 !.tran 5000us
TEXT 3168 336 Left 2 !.lib 74hc.lib
